Version 4
SHEET 1 964 680
WIRE 384 -16 288 -16
WIRE 480 -16 384 -16
WIRE 848 -16 480 -16
WIRE 880 -16 848 -16
WIRE 384 16 384 -16
WIRE 480 16 480 -16
WIRE 880 64 880 -16
WIRE 384 128 384 96
WIRE 480 128 480 80
WIRE 480 128 384 128
WIRE 544 160 496 160
WIRE 848 160 848 -16
WIRE 848 160 768 160
WIRE 496 176 496 160
WIRE 288 224 176 224
WIRE 384 224 384 128
WIRE 384 224 352 224
WIRE 544 224 384 224
WIRE 880 224 880 144
WIRE 880 224 768 224
WIRE 544 288 400 288
WIRE 880 288 880 224
WIRE 880 288 768 288
WIRE 432 336 352 336
WIRE 464 336 432 336
WIRE 352 352 352 336
WIRE 544 352 512 352
WIRE 816 352 768 352
WIRE 816 400 816 352
WIRE 880 400 880 288
WIRE 464 432 464 336
WIRE 352 448 352 432
WIRE 432 448 352 448
WIRE 352 464 352 448
WIRE 544 464 496 464
WIRE 400 480 400 288
WIRE 432 480 400 480
WIRE 816 480 816 464
WIRE 880 480 880 464
WIRE 464 512 464 496
WIRE 352 560 352 544
FLAG 496 176 0
FLAG 816 480 0
FLAG 880 480 0
FLAG 512 352 Vcc
FLAG 544 464 PWM
IOPIN 544 464 Out
FLAG 288 -16 Vcc
IOPIN 288 -16 In
FLAG 176 224 enc
IOPIN 176 224 In
FLAG 352 560 0
FLAG 464 512 0
FLAG 432 336 Vcc
SYMBOL LM555 656 256 R0
SYMATTR InstName U1
SYMBOL cap 352 208 R90
WINDOW 0 0 32 VBottom 2
WINDOW 3 32 32 VTop 2
SYMATTR InstName C1
SYMATTR Value 1n
SYMBOL cap 896 464 R180
WINDOW 0 24 56 Left 2
WINDOW 3 24 8 Left 2
SYMATTR InstName C2
SYMATTR Value 1µ
SYMBOL cap 832 464 R180
WINDOW 0 24 56 Left 2
WINDOW 3 24 8 Left 2
SYMATTR InstName C4
SYMATTR Value .1µ
SYMBOL res 368 0 R0
SYMATTR InstName R1
SYMATTR Value 5k
SYMBOL diode 496 80 R180
WINDOW 0 24 64 Left 2
WINDOW 3 -89 33 Left 2
SYMATTR InstName D1
SYMATTR Value 1N4148
SYMBOL res 864 48 R0
SYMATTR InstName R2
SYMATTR Value 650
SYMBOL TLC3702 464 464 R0
SYMATTR InstName U2
SYMBOL res 336 336 R0
SYMATTR InstName R3
SYMATTR Value 33k
SYMBOL res 336 448 R0
SYMATTR InstName R4
SYMATTR Value 33k
