Version 4
SHEET 1 1560 912
WIRE 96 -80 16 -80
WIRE 144 -80 96 -80
WIRE 192 -80 144 -80
WIRE 256 -80 192 -80
WIRE 432 -80 352 -80
WIRE 480 -80 432 -80
WIRE 528 -80 480 -80
WIRE 592 -80 528 -80
WIRE 16 -64 16 -80
WIRE 96 -64 96 -80
WIRE 144 -64 144 -80
WIRE 192 -64 192 -80
WIRE 352 -64 352 -80
WIRE 432 -64 432 -80
WIRE 480 -64 480 -80
WIRE 528 -64 528 -80
WIRE 96 16 96 0
WIRE 144 16 144 0
WIRE 192 16 192 0
WIRE 432 16 432 0
WIRE 480 16 480 0
WIRE 528 16 528 0
WIRE 16 32 16 16
WIRE 352 32 352 16
WIRE 112 176 112 144
WIRE 176 176 176 144
WIRE 400 176 400 144
WIRE 80 224 -96 224
WIRE 224 224 208 224
WIRE 352 224 304 224
WIRE 496 224 448 224
WIRE 704 224 656 224
WIRE 80 256 16 256
WIRE 352 256 336 256
WIRE 496 256 448 256
WIRE 672 256 656 256
WIRE 80 288 64 288
WIRE 400 320 400 304
WIRE 112 384 112 352
WIRE 176 384 176 352
WIRE 80 432 -96 432
WIRE 224 432 208 432
WIRE 336 432 336 256
WIRE 336 432 304 432
WIRE -80 464 -96 464
WIRE 16 464 16 256
WIRE 16 464 0 464
WIRE 80 464 16 464
WIRE 16 480 16 464
WIRE 64 496 64 288
WIRE 80 496 64 496
WIRE 528 496 496 496
WIRE 672 512 672 256
WIRE 672 512 656 512
WIRE 64 528 64 496
WIRE 528 528 64 528
WIRE 16 560 16 544
FLAG 16 32 0
FLAG 96 16 0
FLAG 144 16 0
FLAG 192 16 0
FLAG 352 32 0
FLAG 432 16 0
FLAG 480 16 0
FLAG 528 16 0
FLAG -96 224 CW
IOPIN -96 224 In
FLAG -96 432 CC
IOPIN -96 432 In
FLAG -96 464 REF
IOPIN -96 464 In
FLAG 704 224 omega
IOPIN 704 224 Out
FLAG 16 560 0
FLAG 256 -80 +5V
FLAG 592 -80 +10V
FLAG 400 320 0
FLAG 496 496 +5V
FLAG 0 416 +5V
FLAG 112 144 +5V
FLAG 176 144 +10V
FLAG 400 144 +10V
FLAG 112 352 +5V
FLAG 176 352 +10V
SYMBOL voltage 16 -80 R0
SYMATTR InstName VCC
SYMATTR Value 5
SYMBOL voltage 352 -80 R0
SYMATTR InstName VDC
SYMATTR Value 10
SYMBOL FeedbackControl 144 240 R0
SYMATTR InstName X1
SYMBOL FeedbackControl 144 448 R0
SYMATTR InstName X2
SYMBOL OneShot 592 512 R0
SYMATTR InstName X3
SYMBOL MotorDriver 400 240 R0
SYMATTR InstName X4
SYMBOL MotorModel 576 240 R0
SYMATTR InstName X5
SYMBOL cap 80 -64 R0
SYMATTR InstName C1
SYMATTR Value 47µ
SYMBOL cap 128 -64 R0
SYMATTR InstName C2
SYMATTR Value .1µ
SYMBOL cap 176 -64 R0
SYMATTR InstName C3
SYMATTR Value .1µ
SYMBOL cap 416 -64 R0
SYMATTR InstName C4
SYMATTR Value 47µ
SYMBOL cap 464 -64 R0
SYMATTR InstName C5
SYMATTR Value .1µ
SYMBOL cap 512 -64 R0
SYMATTR InstName C6
SYMATTR Value .1µ
SYMBOL res 16 448 R90
WINDOW 0 0 56 VBottom 2
WINDOW 3 32 56 VTop 2
SYMATTR InstName R1
SYMATTR Value 3.3k
SYMBOL cap 0 480 R0
SYMATTR InstName C7
SYMATTR Value 1µ
SYMBOL res 320 208 R90
WINDOW 0 0 56 VBottom 2
WINDOW 3 32 56 VTop 2
SYMATTR InstName Rb1
SYMATTR Value 680
SYMBOL res 320 416 R90
WINDOW 0 0 56 VBottom 2
WINDOW 3 32 56 VTop 2
SYMATTR InstName Rb2
SYMATTR Value 680
TEXT -224 640 Left 2 !.tran 200ms
RECTANGLE Normal -32 -112 308 60 2
RECTANGLE Normal 316 -112 660 60 2
