Version 4
SHEET 1 964 680
WIRE 192 -16 128 -16
WIRE 272 -16 192 -16
WIRE 320 -16 272 -16
WIRE 384 -16 320 -16
WIRE 480 -16 384 -16
WIRE 848 -16 480 -16
WIRE 880 -16 848 -16
WIRE 128 0 128 -16
WIRE 192 16 192 -16
WIRE 272 16 272 -16
WIRE 320 16 320 -16
WIRE 384 16 384 -16
WIRE 480 16 480 -16
WIRE 880 64 880 -16
WIRE 128 96 128 80
WIRE 192 96 192 80
WIRE 272 96 272 80
WIRE 320 96 320 80
WIRE -112 128 -144 128
WIRE -16 128 -112 128
WIRE 384 128 384 96
WIRE 480 128 480 80
WIRE 480 128 384 128
WIRE -144 144 -144 128
WIRE 544 160 496 160
WIRE 848 160 848 -16
WIRE 848 160 768 160
WIRE 496 176 496 160
WIRE -16 192 -16 128
WIRE 16 192 -16 192
WIRE 224 192 176 192
WIRE 16 224 -144 224
WIRE 288 224 176 224
WIRE 384 224 384 128
WIRE 384 224 352 224
WIRE 544 224 384 224
WIRE 880 224 880 144
WIRE 880 224 768 224
WIRE 544 288 400 288
WIRE 880 288 880 224
WIRE 880 288 768 288
WIRE 544 352 512 352
WIRE 816 352 768 352
WIRE 816 400 816 352
WIRE 880 400 880 288
WIRE 400 416 400 288
WIRE 560 416 400 416
WIRE 400 464 400 416
WIRE 416 464 400 464
WIRE 512 464 496 464
WIRE 560 464 512 464
WIRE 512 480 512 464
WIRE 816 480 816 464
WIRE 880 480 880 464
WIRE 512 560 512 544
FLAG 496 176 0
FLAG 192 96 0
FLAG 272 96 0
FLAG 320 96 0
FLAG 128 96 0
FLAG 816 480 0
FLAG 880 480 0
FLAG 560 464 speed
IOPIN 560 464 Out
FLAG 560 416 PWM
IOPIN 560 416 Out
FLAG 512 352 VCC
FLAG 512 560 0
FLAG -112 128 dc
FLAG 224 192 w
SYMBOL LM555 656 256 R0
SYMATTR InstName U1
SYMBOL cap 352 208 R90
WINDOW 0 0 32 VBottom 2
WINDOW 3 32 32 VTop 2
SYMATTR InstName C1
SYMATTR Value 1n
SYMBOL cap 896 464 R180
WINDOW 0 24 56 Left 2
WINDOW 3 24 8 Left 2
SYMATTR InstName C2
SYMATTR Value 1µ
SYMBOL cap 528 544 R180
WINDOW 0 -26 53 Left 2
WINDOW 3 -21 7 Left 2
SYMATTR InstName C3
SYMATTR Value 1µ
SYMBOL cap 832 464 R180
WINDOW 0 24 56 Left 2
WINDOW 3 24 8 Left 2
SYMATTR InstName C4
SYMATTR Value .1µ
SYMBOL cap 288 80 R180
WINDOW 0 -20 58 Left 2
WINDOW 3 -22 7 Left 2
SYMATTR InstName C5
SYMATTR Value .1µ
SYMBOL cap 336 80 R180
WINDOW 0 -20 59 Left 2
WINDOW 3 -22 7 Left 2
SYMATTR InstName C6
SYMATTR Value .1µ
SYMBOL polcap 176 16 R0
WINDOW 3 45 57 Center 2
SYMATTR Value 47µ
SYMATTR InstName C7
SYMBOL voltage 128 -16 R0
SYMATTR InstName VCC
SYMATTR Value 5
SYMBOL res 368 0 R0
SYMATTR InstName R1
SYMATTR Value 5k
SYMBOL diode 496 80 R180
WINDOW 0 24 64 Left 2
WINDOW 3 -89 33 Left 2
SYMATTR InstName D1
SYMATTR Value 1N4148
SYMBOL res 512 448 R90
WINDOW 0 0 56 VBottom 2
WINDOW 3 32 56 VTop 2
SYMATTR InstName R3
SYMATTR Value 10k
SYMBOL res 864 48 R0
SYMATTR InstName R2
SYMATTR Value 650
SYMBOL voltage -144 128 R0
SYMATTR InstName V1
SYMBOL MotorModel 96 208 R0
SYMATTR InstName X1
